Codigos/Simulacoes/30/06 - EE/ieee30_8_0800_EE.txt
================================================================================= 
=== UFF - Doutorado em Computação - Aplicaçoes em Sistemas de Potencia        === 
=== ESTIMADOR DE ESTADO MÍNIMOS QUADRADOS PONDERADOS INCLUINDO MEDIDAS DE PMU === 
=== Desenvolvido por: Rui Menezes de Moraes - 2009                            === 
================================================================================= 
Arquivo de medidores:          F:\Documents\Uff\Artigos\SimSEP\VERSAO WELDAN V2\Codigos\Med\ieee30_8_0800.med
Arquivo do sistema:            F:\Documents\Uff\Artigos\SimSEP\VERSAO WELDAN V2\Codigos\Carga\ieee30_8_0800.txt
Tolerância entre iteraçoes:     1.00e-04
Limite de iteraçoes:           100

--- DADOS DA REDE --------------------------------------------------------------- 
Data do caso:                  08/20/93
Origem:                        UW ARCHIVE          
MVA base:                      100
Ano:                           1961
Estação:                       W
Identificação:                 IEEE 30 Bus Test Case
Número de barras:              30 
Número de ramos:               41 
Referência na barra:           1

--- TELEMEDIDAS ------------------------------------------------------------------
    Tipo 1 = Fluxo de potencia ativa        Tipo  6 = Módulo da tensão            
    Tipo 2 = Injeção de potencia ativa      Tipo  7 = Corrente de ramo (real)     
    Tipo 3 = Ângulo de fase da tensão       Tipo  8 = Corrente de ramo (imag)     
    Tipo 4 = Fluxo de potencia reativa      Tipo  9 = Injeção de corrente (real)  
    Tipo 5 = Injeção de potencia reativa    Tipo 10 = Injeção de corrente (imag)  
----------------------------------------------------------------------------------
   N    D    P TP  PN ST   Exa   FS       DP      V_Ref      V_Med          E(%) 
----------------------------------------------------------------------------------
   1    0    1  6   0  0 0.015 01.1  0.00530   +1.06000   +1.05553     -0.421698 
   2    0    2  6   0  0 0.015 01.1  0.00522   +1.04500   +1.03211     -1.233493 
   3    0    3  6   0  0 0.015 01.1  0.00503   +1.00518   +1.00041     -0.474542 
   4    0    4  6   0  0 0.015 01.1  0.00496   +0.99199   +0.99344     +0.146171 
   5    0    5  6   0  0 0.015 01.1  0.00491   +0.98159   +0.98043     -0.118176 
   6    0    6  6   0  0 0.015 01.1  0.00492   +0.98355   +0.98784     +0.436175 
   7    0    7  6   0  0 0.015 01.1  0.00486   +0.97210   +0.97249     +0.040119 
   8    0    8  6   0  0 0.015 01.1  0.00490   +0.98002   +0.98927     +0.943858 
   9    0    9  6   0  0 0.015 01.1  0.00511   +1.02220   +1.00985     -1.208178 
  10    0   10  6   0  0 0.015 01.1  0.00504   +1.00875   +1.00765     -0.109046 
  11    0   11  6   0  0 0.015 01.1  0.00534   +1.06891   +1.07179     +0.269433 
  12    0   12  6   0  0 0.015 01.1  0.00518   +1.03600   +1.02628     -0.938224 
  13    0   13  6   0  0 0.015 01.1  0.00534   +1.06748   +1.07104     +0.333496 
  14    0   14  6   0  0 0.015 01.1  0.00507   +1.01498   +1.00133     -1.344854 
  15    0   15  6   0  0 0.015 01.1  0.00504   +1.00740   +1.00969     +0.227318 
  16    0   16  6   0  0 0.015 01.1  0.00507   +1.01439   +1.02481     +1.027218 
  17    0   17  6   0  0 0.015 01.1  0.00502   +1.00391   +1.00390     -0.000996 
  18    0   18  6   0  0 0.015 01.1  0.00496   +0.99184   +0.99002     -0.183497 
  19    0   19  6   0  0 0.015 01.1  0.00493   +0.98674   +0.97635     -1.052962 
  20    0   20  6   0  0 0.015 01.1  0.00496   +0.99119   +0.97716     -1.415470 
  21    0   21  6   0  0 0.015 01.1  0.00496   +0.99256   +1.00020     +0.769727 
  22    0   22  6   0  0 0.015 01.1  0.00497   +0.99332   +1.00214     +0.887931 
  23    0   23  6   0  0 0.015 01.1  0.00495   +0.99047   +0.98433     -0.619908 
  24    0   24  6   0  0 0.015 01.1  0.00490   +0.97891   +0.96761     -1.154345 
  25    0   25  6   0  0 0.015 01.1  0.00488   +0.97516   +0.97150     -0.375323 
  26    0   26  6   0  0 0.015 01.1  0.00476   +0.95177   +0.96116     +0.986583 
  27    0   27  6   0  0 0.015 01.1  0.00492   +0.98416   +0.99425     +1.025240 
  28    0   28  6   0  0 0.015 01.1  0.00489   +0.97717   +0.98201     +0.495308 
  29    0   29  6   0  0 0.015 01.1  0.00479   +0.95762   +0.97084     +1.380506 
  30    0   30  6   0  0 0.015 01.1  0.00471   +0.94206   +0.95459     +1.330064 
  31    0    1  2   0  0 0.020 01.0  0.00229   +0.08297   +0.07766     -6.399904 
  32    0    2  2   0  0 0.020 01.0  0.02481   +3.46100   +3.48307     +0.637677 
  33    0    3  2   0  0 0.020 01.0  0.00193   -0.03000   -0.03022     +0.733333 
  34    0    4  2   0  0 0.020 01.0  0.00198   -0.03700   -0.04215    +13.918919 
  35    0    5  2   0  0 0.020 01.0  0.00971   -1.19600   -1.17283     -1.937291 
  36    0    6  2   0  0 0.020 01.0  0.00173   -0.00000   -0.00003     +0.000000 
  37    0    7  2   0  0 0.020 01.0  0.00367   -0.29000   -0.28403     -2.058621 
  38    0    8  2   0  0 0.020 01.0  0.00427   -0.38100   -0.39227     +2.958005 
  39    0    9  2   0  0 0.020 01.0  0.00173   -0.00000   -0.00247     +0.000000 
  40    0   10  2   0  0 0.020 01.0  0.00271   -0.14600   -0.14354     -1.684932 
  41    0   11  2   0  0 0.020 01.0  0.00173   +0.00000   -0.00381     +0.000000 
  42    0   12  2   0  0 0.020 01.0  0.00268   -0.14200   -0.13977     -1.570423 
  43    0   13  2   0  0 0.020 01.0  0.00173   -0.00000   -0.00120     +0.000000 
  44    0   14  2   0  0 0.020 01.0  0.00226   -0.07900   -0.07540     -4.556962 
  45    0   15  2   0  0 0.020 01.0  0.00243   -0.10400   -0.10177     -2.144231 
  46    0   16  2   0  0 0.020 01.0  0.00203   -0.04400   -0.04544     +3.272727 
  47    0   17  2   0  0 0.020 01.0  0.00249   -0.11400   -0.11699     +2.622807 
  48    0   18  2   0  0 0.020 01.0  0.00201   -0.04100   -0.04292     +4.682927 
  49    0   19  2   0  0 0.020 01.0  0.00254   -0.12100   -0.11461     -5.280992 
  50    0   20  2   0  0 0.020 01.0  0.00192   -0.02800   -0.02850     +1.785714 
  51    0   21  2   0  0 0.020 01.0  0.00321   -0.22200   -0.22311     +0.500000 
  52    0   22  2   0  0 0.020 01.0  0.00173   +0.00000   -0.00048     +0.000000 
  53    0   23  2   0  0 0.020 01.0  0.00201   -0.04100   -0.03564    -13.073171 
  54    0   24  2   0  0 0.020 01.0  0.00247   -0.11000   -0.11416     +3.781818 
  55    0   25  2   0  0 0.020 01.0  0.00173   +0.00000   +0.00398     +0.000000 
  56    0   26  2   0  0 0.020 01.0  0.00203   -0.04400   -0.04984    +13.272727 
  57    0   27  2   0  0 0.020 01.0  0.00173   +0.00000   -0.00165     +0.000000 
  58    0   28  2   0  0 0.020 01.0  0.00173   -0.00000   +0.00277     +0.000000 
  59    0   29  2   0  0 0.020 01.0  0.00193   -0.03000   -0.03182     +6.066667 
  60    0   30  2   0  0 0.020 01.0  0.00263   -0.13500   -0.13312     -1.392593 
  61    0    1  5   0  0 0.020 01.0  0.00583   +0.61509   +0.61344     -0.268253 
  62    0    2  5   0  0 0.020 01.0  0.00256   -0.12381   -0.13133     +6.073823 
  63    0    3  5   0  0 0.020 01.0  0.00183   -0.01500   -0.01391     -7.266667 
  64    0    4  5   0  0 0.020 01.0  0.00179   -0.00800   -0.00691    -13.625000 
  65    0    5  5   0  0 0.020 01.0  0.00279   +0.15900   +0.16150     +1.572327 
  66    0    6  5   0  0 0.020 01.0  0.00173   +0.00000   -0.00164     +0.000000 
  67    0    7  5   0  0 0.020 01.0  0.00265   -0.13800   -0.13811     +0.079710 
  68    0    8  5   0  0 0.020 01.0  0.00186   +0.01900   +0.02125    +11.842105 
  69    0    9  5   0  0 0.020 01.0  0.00173   +0.00000   +0.00403     +0.000000 
  70    0   10  5   0  0 0.020 01.0  0.00207   -0.05000   -0.05552    +11.040000 
  71    0   11  5   0  0 0.020 01.0  0.00333   +0.24000   +0.23197     -3.345833 
  72    0   12  5   0  0 0.020 01.0  0.00237   -0.09500   -0.09287     -2.242105 
  73    0   13  5   0  0 0.020 01.0  0.00333   +0.24003   +0.24531     +2.199725 
  74    0   14  5   0  0 0.020 01.0  0.00187   -0.02000   -0.01453    -27.350000 
  75    0   15  5   0  0 0.020 01.0  0.00195   -0.03200   -0.03638    +13.687500 
  76    0   16  5   0  0 0.020 01.0  0.00189   -0.02300   -0.02453     +6.652174 
  77    0   17  5   0  0 0.020 01.0  0.00223   -0.07400   -0.07165     -3.175676 
  78    0   18  5   0  0 0.020 01.0  0.00181   -0.01100   -0.01235    +12.272727 
  79    0   19  5   0  0 0.020 01.0  0.00202   -0.04300   -0.03860    -10.232558 
  80    0   20  5   0  0 0.020 01.0  0.00179   -0.00900   -0.01124    +24.888889 
  81    0   21  5   0  0 0.020 01.0  0.00268   -0.14200   -0.14789     +4.147887 
  82    0   22  5   0  0 0.020 01.0  0.00173   -0.00000   +0.00180     +0.000000 
  83    0   23  5   0  0 0.020 01.0  0.00187   -0.02000   -0.02333    +16.650000 
  84    0   24  5   0  0 0.020 01.0  0.00230   -0.08500   -0.07991     -5.988235 
  85    0   25  5   0  0 0.020 01.0  0.00173   +0.00000   +0.00261     +0.000000 
  86    0   26  5   0  0 0.020 01.0  0.00193   -0.02900   -0.02993     +3.206897 
  87    0   27  5   0  0 0.020 01.0  0.00173   +0.00000   -0.00520     +0.000000 
  88    0   28  5   0  0 0.020 01.0  0.00173   -0.00000   -0.00365     +0.000000 
  89    0   29  5   0  0 0.020 01.0  0.00181   -0.01100   -0.01345    +22.272727 
  90    0   30  5   0  0 0.020 01.0  0.00189   -0.02400   -0.01977    -17.625000 
  91    1    2  1   0  0 0.020 01.0  0.00505   -0.49755   -0.49448     -0.617023 
  92    1    3  1   0  0 0.020 01.0  0.00560   +0.58052   +0.57451     -1.035279 
  93    2    4  1   0  0 0.020 01.0  0.00722   +0.82361   +0.81426     -1.135246 
  94    3    4  1   0  0 0.020 01.0  0.00530   +0.53512   +0.53306     -0.384960 
  95    2    5  1   0  0 0.020 01.0  0.00939   +1.14907   +1.17183     +1.980732 
  96    2    6  1   0  0 0.020 01.0  0.00829   +0.98302   +1.00415     +2.149498 
  97    4    6  1   0  0 0.020 01.0  0.00644   +0.70667   +0.70688     +0.029717 
  98    5    7  1   0  0 0.020 01.0  0.00244   -0.10540   -0.10354     -1.764706 
  99    6    7  1   0  0 0.020 01.0  0.00441   +0.40111   +0.40691     +1.445987 
 100    6    8  1   0  0 0.020 01.0  0.00425   +0.37758   +0.36544     -3.215213 
 101    6    9  1   0  0 0.020 01.0  0.00432   +0.38770   +0.38964     +0.500387 
 102    6   10  1   0  0 0.020 01.0  0.00320   +0.22026   +0.21155     -3.954418 
 103    9   11  1   0  0 0.020 01.0  0.00173   +0.00000   -0.00081     +0.000000 
 104    9   10  1   0  0 0.020 01.0  0.00432   +0.38770   +0.38686     -0.216662 
 105    4   12  1   0  0 0.020 01.0  0.00557   +0.57501   +0.55907     -2.772126 
 106   12   13  1   0  0 0.020 01.0  0.00173   +0.00000   -0.00452     +0.000000 
 107   12   14  1   0  0 0.020 01.0  0.00242   +0.10272   +0.10887     +5.987150 
 108   12   15  1   0  0 0.020 01.0  0.00329   +0.23321   +0.23388     +0.287295 
 109   12   16  1   0  0 0.020 01.0  0.00238   +0.09708   +0.09518     -1.957149 
 110   14   15  1   0  0 0.020 01.0  0.00188   +0.02236   +0.02082     -6.887299 
 111   16   17  1   0  0 0.020 01.0  0.00208   +0.05186   +0.04751     -8.387968 
 112   15   18  1   0  0 0.020 01.0  0.00228   +0.08162   +0.07683     -5.868660 
 113   18   19  1   0  0 0.020 01.0  0.00200   +0.03981   +0.03802     -4.496358 
 114   19   20  1   0  0 0.020 01.0  0.00228   -0.08132   -0.08356     +2.754550 
 115   10   20  1   0  0 0.020 01.0  0.00247   +0.11082   +0.11503     +3.798953 
 116   10   17  1   0  0 0.020 01.0  0.00215   +0.06253   +0.06236     -0.271870 
 117   10   21  1   0  0 0.020 01.0  0.00303   +0.19530   +0.19465     -0.332821 
 118   10   22  1   0  0 0.020 01.0  0.00235   +0.09332   +0.08811     -5.582940 
 119   21   22  1   0  0 0.020 01.0  0.00192   -0.02857   -0.02411    -15.610781 
 120   15   23  1   0  0 0.020 01.0  0.00217   +0.06569   +0.06796     +3.455625 
 121   22   24  1   0  0 0.020 01.0  0.00216   +0.06387   +0.06821     +6.795052 
 122   23   24  1   0  0 0.020 01.0  0.00189   +0.02400   +0.02578     +7.416667 
 123   24   25  1   0  0 0.020 01.0  0.00189   -0.02299   -0.01751    -23.836451 
 124   25   26  1   0  0 0.020 01.0  0.00203   +0.04478   +0.05063    +13.063868 
 125   25   27  1   0  0 0.020 01.0  0.00219   -0.06799   -0.07127     +4.824239 
 126   28   27  1   0  0 0.020 01.0  0.00332   +0.23857   +0.24105     +1.039527 
 127   27   29  1   0  0 0.020 01.0  0.00226   +0.07906   +0.08216     +3.921073 
 128   27   30  1   0  0 0.020 01.0  0.00234   +0.09098   +0.09095     -0.032974 
 129   29   30  1   0  0 0.020 01.0  0.00205   +0.04753   +0.05184     +9.067957 
 130    8   28  1   0  0 0.020 01.0  0.00177   -0.00520   -0.00847    +62.884615 
 131    6   28  1   0  0 0.020 01.0  0.00337   +0.24486   +0.23727     -3.099730 
 132    1    2  4   0  0 0.020 01.0  0.00456   +0.42393   +0.41033     -3.208077 
 133    1    3  4   0  0 0.020 01.0  0.00301   +0.19115   +0.18489     -3.274915 
 134    2    4  4   0  0 0.020 01.0  0.00227   +0.08110   +0.08156     +0.567201 
 135    3    4  4   0  0 0.020 01.0  0.00282   +0.16340   +0.16358     +0.110159 
 136    2    5  4   0  0 0.020 01.0  0.00278   +0.15748   +0.15556     -1.219202 
 137    2    6  4   0  0 0.020 01.0  0.00238   +0.09684   +0.09414     -2.788104 
 138    4    6  4   0  0 0.020 01.0  0.00177   +0.00523   -0.00003   -100.573614 
 139    5    7  4   0  0 0.020 01.0  0.00249   +0.11377   +0.11848     +4.139931 
 140    6    7  4   0  0 0.020 01.0  0.00177   +0.00534   +0.00681    +27.528090 
 141    6    8  4   0  0 0.020 01.0  0.00191   -0.02637   -0.02696     +2.237391 
 142    6    9  4   0  0 0.020 01.0  0.00216   -0.06467   -0.06800     +5.149219 
 143    6   10  4   0  0 0.020 01.0  0.00190   +0.02467   +0.02812    +13.984597 
 144    9   11  4   0  0 0.020 01.0  0.00326   -0.22951   -0.22317     -2.762407 
 145    9   10  4   0  0 0.020 01.0  0.00262   +0.13307   +0.13860     +4.155708 
 146    4   12  4   0  0 0.020 01.0  0.00278   +0.15652   +0.15597     -0.351393 
 147   12   13  4   0  0 0.020 01.0  0.00329   -0.23295   -0.22367     -3.983687 
 148   12   14  4   0  0 0.020 01.0  0.00198   +0.03658   +0.04063    +11.071624 
 149   12   15  4   0  0 0.020 01.0  0.00247   +0.11075   +0.10450     -5.643341 
 150   12   16  4   0  0 0.020 01.0  0.00218   +0.06690   +0.06347     -5.127055 
 151   14   15  4   0  0 0.020 01.0  0.00183   +0.01374   +0.01722    +25.327511 
 152   16   17  4   0  0 0.020 01.0  0.00201   +0.04133   +0.04019     -2.758287 
 153   15   18  4   0  0 0.020 01.0  0.00195   +0.03216   +0.03177     -1.212687 
 154   18   19  4   0  0 0.020 01.0  0.00186   +0.01950   +0.02455    +25.897436 
 155   19   20  4   0  0 0.020 01.0  0.00189   -0.02375   -0.01848    -22.189474 
 156   10   20  4   0  0 0.020 01.0  0.00197   +0.03605   +0.03919     +8.710125 
 157   10   17  4   0  0 0.020 01.0  0.00196   +0.03392   +0.03479     +2.564858 
 158   10   21  4   0  0 0.020 01.0  0.00259   +0.12802   +0.13448     +5.046087 
 159   10   22  4   0  0 0.020 01.0  0.00213   +0.05889   +0.05883     -0.101885 
 160   21   22  4   0  0 0.020 01.0  0.00185   -0.01799   -0.02170    +20.622568 
 161   15   23  4   0  0 0.020 01.0  0.00208   +0.05210   +0.04992     -4.184261 
 162   22   24  4   0  0 0.020 01.0  0.00199   +0.03908   +0.03664     -6.243603 
 163   23   24  4   0  0 0.020 01.0  0.00194   +0.03070   +0.03138     +2.214984 
 164   24   25  4   0  0 0.020 01.0  0.00190   +0.02455   +0.01962    -20.081466 
 165   25   26  4   0  0 0.020 01.0  0.00193   +0.03016   +0.02516    -16.578249 
 166   25   27  4   0  0 0.020 01.0  0.00177   -0.00601   -0.00955    +58.901830 
 167   28   27  4   0  0 0.020 01.0  0.00224   +0.07589   +0.08190     +7.919357 
 168   27   29  4   0  0 0.020 01.0  0.00188   +0.02206   +0.02557    +15.911151 
 169   27   30  4   0  0 0.020 01.0  0.00188   +0.02244   +0.02482    +10.606061 
 170   29   30  4   0  0 0.020 01.0  0.00179   +0.00817   +0.01322    +61.811506 
 171    8   28  4   0  0 0.020 01.0  0.00177   -0.00490   +0.00038   -107.755102 
 172    6   28  4   0  0 0.020 01.0  0.00194   +0.03116   +0.03684    +18.228498 
 173    2    1  1   0  0 0.020 01.0  0.00510   +0.50530   +0.49459     -2.119533 
 174    3    1  1   0  0 0.020 01.0  0.00550   -0.56512   -0.54999     -2.677307 
 175    4    2  1   0  0 0.020 01.0  0.00698   -0.78767   -0.78640     -0.161235 
 176    4    3  1   0  0 0.020 01.0  0.00527   -0.53101   -0.54449     +2.538559 
 177    5    2  1   0  0 0.020 01.0  0.00900   -1.09060   -1.10076     +0.931597 
 178    6    2  1   0  0 0.020 01.0  0.00794   -0.93087   -0.91205     -2.021765 
 179    6    4  1   0  0 0.020 01.0  0.00640   -0.70063   -0.68777     -1.835491 
 180    7    5  1   0  0 0.020 01.0  0.00244   +0.10666   +0.09936     -6.844178 
 181    7    6  1   0  0 0.020 01.0  0.00438   -0.39666   -0.39298     -0.927747 
 182    8    6  1   0  0 0.020 01.0  0.00424   -0.37580   -0.36809     -2.051623 
 183    9    6  1   0  0 0.020 01.0  0.00432   -0.38770   -0.39430     +1.702347 
 184   10    6  1   0  0 0.020 01.0  0.00320   -0.22026   -0.22864     +3.804595 
 185   11    9  1   0  0 0.020 01.0  0.00173   -0.00000   -0.00246     +0.000000 
 186   10    9  1   0  0 0.020 01.0  0.00432   -0.38770   -0.39799     +2.654114 
 187   12    4  1   0  0 0.020 01.0  0.00557   -0.57501   -0.57556     +0.095651 
 188   13   12  1   0  0 0.020 01.0  0.00173   -0.00000   -0.00084     +0.000000 
 189   14   12  1   0  0 0.020 01.0  0.00241   -0.10136   -0.10308     +1.696922 
 190   15   12  1   0  0 0.020 01.0  0.00326   -0.22910   -0.22153     -3.304234 
 191   16   12  1   0  0 0.020 01.0  0.00237   -0.09585   -0.09699     +1.189358 
 192   15   14  1   0  0 0.020 01.0  0.00188   -0.02221   -0.02465    +10.986042 
 193   17   16  1   0  0 0.020 01.0  0.00208   -0.05163   -0.05726    +10.904513 
 194   18   15  1   0  0 0.020 01.0  0.00227   -0.08081   -0.08464     +4.739512 
 195   19   18  1   0  0 0.020 01.0  0.00200   -0.03968   -0.04281     +7.888105 
 196   20   19  1   0  0 0.020 01.0  0.00228   +0.08157   +0.07514     -7.882800 
 197   20   10  1   0  0 0.020 01.0  0.00246   -0.10957   -0.10658     -2.728849 
 198   17   10  1   0  0 0.020 01.0  0.00215   -0.06237   -0.06872    +10.181177 
 199   21   10  1   0  0 0.020 01.0  0.00302   -0.19343   -0.19142     -1.039136 
 200   22   10  1   0  0 0.020 01.0  0.00235   -0.09245   -0.09374     +1.395349 
 201   22   21  1   0  0 0.020 01.0  0.00192   +0.02858   +0.02568    -10.146956 
 202   23   15  1   0  0 0.020 01.0  0.00217   -0.06500   -0.06302     -3.046154 
 203   24   22  1   0  0 0.020 01.0  0.00215   -0.06321   -0.06554     +3.686126 
 204   24   23  1   0  0 0.020 01.0  0.00189   -0.02379   -0.02829    +18.915511 
 205   25   24  1   0  0 0.020 01.0  0.00189   +0.02321   +0.02362     +1.766480 
 206   26   25  1   0  0 0.020 01.0  0.00203   -0.04400   -0.04808     +9.272727 
 207   27   25  1   0  0 0.020 01.0  0.00219   +0.06853   +0.07357     +7.354443 
 208   27   28  1   0  0 0.020 01.0  0.00332   -0.23857   -0.23525     -1.391625 
 209   29   27  1   0  0 0.020 01.0  0.00225   -0.07753   -0.07284     -6.049271 
 210   30   27  1   0  0 0.020 01.0  0.00232   -0.08807   -0.08442     -4.144431 
 211   30   29  1   0  0 0.020 01.0  0.00205   -0.04693   -0.04316     -8.033241 
 212   28    8  1   0  0 0.020 01.0  0.00177   +0.00521   +0.00662    +27.063340 
 213   28    6  1   0  0 0.020 01.0  0.00336   -0.24378   -0.23954     -1.739273 
 214    2    1  4   0  0 0.020 01.0  0.00479   -0.45923   -0.45380     -1.182414 
 215    3    1  4   0  0 0.020 01.0  0.00292   -0.17840   -0.18154     +1.760090 
 216    4    2  4   0  0 0.020 01.0  0.00180   -0.00977   -0.00943     -3.480041 
 217    4    3  4   0  0 0.020 01.0  0.00280   -0.15998   -0.15371     -3.919240 
 218    5    2  4   0  0 0.020 01.0  0.00203   +0.04523   +0.03979    -12.027415 
 219    6    2  4   0  0 0.020 01.0  0.00189   +0.02287   +0.02288     +0.043725 
 220    6    4  4   0  0 0.020 01.0  0.00178   +0.00700   +0.00628    -10.285714 
 221    7    5  4   0  0 0.020 01.0  0.00260   -0.13006   -0.12375     -4.851607 
 222    7    6  4   0  0 0.020 01.0  0.00179   -0.00794   -0.00655    -17.506297 
 223    8    6  4   0  0 0.020 01.0  0.00189   +0.02390   +0.02939    +22.970711 
 224    9    6  4   0  0 0.020 01.0  0.00238   +0.09645   +0.09766     +1.254536 
 225   10    6  4   0  0 0.020 01.0  0.00175   +0.00184   +0.00541   +194.021739 
 226   11    9  4   0  0 0.020 01.0  0.00333   +0.24000   +0.23938     -0.258333 
 227   10    9  4   0  0 0.020 01.0  0.00250   -0.11538   -0.11470     -0.589357 
 228   12    4  4   0  0 0.020 01.0  0.00224   -0.07627   -0.08058     +5.650977 
 229   13   12  4   0  0 0.020 01.0  0.00333   +0.24003   +0.24272     +1.120693 
 230   14   12  4   0  0 0.020 01.0  0.00196   -0.03374   -0.02830    -16.123296 
 231   15   12  4   0  0 0.020 01.0  0.00242   -0.10265   -0.10215     -0.487092 
 232   16   12  4   0  0 0.020 01.0  0.00216   -0.06433   -0.06459     +0.404166 
 233   15   14  4   0  0 0.020 01.0  0.00182   -0.01361   -0.01040    -23.585599 
 234   17   16  4   0  0 0.020 01.0  0.00200   -0.04050   -0.04540    +12.098765 
 235   18   15  4   0  0 0.020 01.0  0.00194   -0.03050   -0.02608    -14.491803 
 236   19   18  4   0  0 0.020 01.0  0.00186   -0.01925   -0.02479    +28.779221 
 237   20   19  4   0  0 0.020 01.0  0.00189   +0.02426   +0.02439     +0.535862 
 238   20   10  4   0  0 0.020 01.0  0.00196   -0.03326   -0.03116     -6.313891 
 239   17   10  4   0  0 0.020 01.0  0.00196   -0.03350   -0.03272     -2.328358 
 240   21   10  4   0  0 0.020 01.0  0.00256   -0.12401   -0.12434     +0.266108 
 241   22   10  4   0  0 0.020 01.0  0.00211   -0.05710   -0.05937     +3.975482 
 242   22   21  4   0  0 0.020 01.0  0.00185   +0.01802   +0.01915     +6.270810 
 243   23   15  4   0  0 0.020 01.0  0.00207   -0.05070   -0.04556    -10.138067 
 244   24   22  4   0  0 0.020 01.0  0.00199   -0.03806   -0.03589     -5.701524 
 245   24   23  4   0  0 0.020 01.0  0.00194   -0.03028   -0.02509    -17.140026 
 246   25   24  4   0  0 0.020 01.0  0.00189   -0.02416   -0.02872    +18.874172 
 247   26   25  4   0  0 0.020 01.0  0.00193   -0.02900   -0.02887     -0.448276 
 248   27   25  4   0  0 0.020 01.0  0.00178   +0.00703   +0.00286    -59.317212 
 249   27   28  4   0  0 0.020 01.0  0.00208   -0.05153   -0.05097     -1.086746 
 250   29   27  4   0  0 0.020 01.0  0.00186   -0.01917   -0.01706    -11.006781 
 251   30   27  4   0  0 0.020 01.0  0.00185   -0.01698   -0.02088    +22.968198 
 252   30   29  4   0  0 0.020 01.0  0.00178   -0.00702   -0.00406    -42.165242 
 253   28    8  4   0  0 0.020 01.0  0.00197   -0.03603   -0.03722     +3.302803 
 254   28    6  4   0  0 0.020 01.0  0.00200   -0.03986   -0.03508    -11.991972 
----------------------------------------------------------------------------------
Número de medidores SCADA:     254
Número de PMUs:                0
Número de medidas das PMUs:    0
----------------------------------------------------------------------------------

Não há medidas de ângulo.
Não há medidores desabilitados.
============================== Estado Estimado ===================================
                 Barra     Mod(pu)    Ang(graus)              
----------------------------------------------------------------------------------
                    1            1.0598              0.00        
                    2            1.0450              1.93        
                    3            1.0054             -4.63        
                    4            0.9923             -5.67        
                    5            0.9821            -10.38        
                    6            0.9839             -7.38        
                    7            0.9725             -9.32        
                    8            0.9806             -8.33        
                    9            1.0227            -11.88        
                   10            1.0090            -14.24        
                   11            1.0688            -11.89        
                   12            1.0361            -13.32        
                   13            1.0674            -13.31        
                   14            1.0154            -14.51        
                   15            1.0076            -14.57        
                   16            1.0146            -14.04        
                   17            1.0042            -14.49        
                   18            0.9923            -15.42        
                   19            0.9871            -15.64        
                   20            0.9913            -15.37        
                   21            0.9927            -14.82        
                   22            0.9936            -14.80        
                   23            0.9909            -15.04        
                   24            0.9794            -15.25        
                   25            0.9757            -14.53        
                   26            0.9514            -15.26        
                   27            0.9846            -13.66        
                   28            0.9776             -8.20        
                   29            0.9585            -15.33        
                   30            0.9437            -16.55        
----------------------------------------------------------------------------------
Convergiu em:    2 iteraçoes. 
----------------------------------------------------------------------------------
--- RESIDUOS NORMALIZADOS --------------------------------------------------------
   N    D    P  TP      Real     Medido   Estimado      Med-Est        rn 
----------------------------------------------------------------------------------
  95    2    5  1    +1.1491    +1.1718    +1.1459  +2.5961e-02      0.280 
  96    2    6  1    +0.9830    +1.0042    +0.9811  +2.3068e-02      0.261 
  38    0    8  2    -0.3810    -0.3923    -0.3797  -1.2542e-02      0.237 
  35    0    5  2    -1.1960    -1.1728    -1.1910  +1.8188e-02      0.208 
  20    0   20  6    +0.9912    +0.9772    +0.9913  -1.4150e-02      0.205 
  14    0   14  6    +1.0150    +1.0013    +1.0154  -1.4073e-02      0.202 
 105    4   12  1    +0.5750    +0.5591    +0.5731  -1.4049e-02      0.200 
  32    0    2  2    +3.4610    +3.4831    +3.4557  +2.7336e-02      0.200 
 178    6    2  1    -0.9309    -0.9121    -0.9292  +1.7115e-02      0.197 
 186   10    9  1    -0.3877    -0.3980    -0.3867  -1.1277e-02      0.189 
 174    3    1  1    -0.5651    -0.5500    -0.5633  +1.3337e-02      0.186 
  29    0   29  6    +0.9576    +0.9708    +0.9585  +1.2309e-02      0.184 
   9    0    9  6    +1.0222    +1.0098    +1.0227  -1.2875e-02      0.183 
   2    0    2  6    +1.0450    +1.0321    +1.0450  -1.2892e-02      0.181 
 173    2    1  1    +0.5053    +0.4946    +0.5062  -1.1601e-02      0.181 
 176    4    3  1    -0.5310    -0.5445    -0.5325  -1.2008e-02      0.179 
 100    6    8  1    +0.3776    +0.3654    +0.3755  -1.0078e-02      0.178 
  24    0   24  6    +0.9789    +0.9676    +0.9794  -1.1817e-02      0.172 
  37    0    7  2    -0.2900    -0.2840    -0.2917  +7.6869e-03      0.169 
  62    0    2  5    -0.1238    -0.1313    -0.1262  -5.0960e-03      0.166 
  30    0   30  6    +0.9421    +0.9546    +0.9437  +1.0908e-02      0.165 
 132    1    2  4    +0.4239    +0.4103    +0.4203  -9.9513e-03      0.165 
 166   25   27  4    -0.0060    -0.0095    -0.0037  -5.8746e-03      0.160 
 218    5    2  4    +0.0452    +0.0398    +0.0464  -6.6209e-03      0.159 
 102    6   10  1    +0.2203    +0.2115    +0.2204  -8.8041e-03      0.158 
  19    0   19  6    +0.9867    +0.9764    +0.9871  -1.0787e-02      0.157 
 147   12   13  4    -0.2329    -0.2237    -0.2312  +7.5555e-03      0.153 
 170   29   30  4    +0.0082    +0.0132    +0.0073  +5.9544e-03      0.153 
 184   10    6  1    -0.2203    -0.2286    -0.2204  -8.2859e-03      0.149 
  26    0   26  6    +0.9518    +0.9612    +0.9514  +9.7471e-03      0.147 
  16    0   16  6    +1.0144    +1.0248    +1.0146  +1.0235e-02      0.146 
  73    0   13  5    +0.2400    +0.2453    +0.2382  +7.1122e-03      0.146 
 254   28    6  4    -0.0399    -0.0351    -0.0408  +5.7069e-03      0.145 
 177    5    2  1    -1.0906    -1.1008    -1.0878  -1.3006e-02      0.142 
  27    0   27  6    +0.9842    +0.9942    +0.9846  +9.6367e-03      0.140 
 167   28   27  4    +0.0759    +0.0819    +0.0759  +5.9852e-03      0.139 
  12    0   12  6    +1.0360    +1.0263    +1.0361  -9.8479e-03      0.139 
 221    7    5  4    -0.1301    -0.1237    -0.1301  +6.3691e-03      0.137 
 149   12   15  4    +0.1108    +0.1045    +0.1106  -6.1142e-03      0.135 
 234   17   16  4    -0.0405    -0.0454    -0.0399  -5.4710e-03      0.134 
 123   24   25  1    -0.0230    -0.0175    -0.0227  +5.1876e-03      0.134 
 112   15   18  1    +0.0816    +0.0768    +0.0825  -5.6256e-03      0.131 
 111   16   17  1    +0.0519    +0.0475    +0.0529  -5.3517e-03      0.130 
  33    0    3  2    -0.0300    -0.0302    -0.0267  -3.4930e-03      0.130 
  78    0   18  5    -0.0110    -0.0123    -0.0082  -4.1351e-03      0.130 
 129   29   30  1    +0.0475    +0.0518    +0.0465  +5.3770e-03      0.130 
 148   12   14  4    +0.0366    +0.0406    +0.0353  +5.3582e-03      0.129 
 107   12   14  1    +0.1027    +0.1089    +0.1030  +5.8852e-03      0.128 
 172    6   28  4    +0.0312    +0.0368    +0.0320  +4.8841e-03      0.126 
   8    0    8  6    +0.9800    +0.9893    +0.9806  +8.6826e-03      0.126 
  72    0   12  5    -0.0950    -0.0929    -0.0965  +3.6590e-03      0.126 
 180    7    5  1    +0.1067    +0.0994    +0.1045  -5.1414e-03      0.124 
  22    0   22  6    +0.9933    +1.0021    +0.9936  +8.5741e-03      0.124 
 246   25   24  4    -0.0242    -0.0287    -0.0239  -4.8648e-03      0.123 
 179    6    4  1    -0.7006    -0.6878    -0.6969  +9.1057e-03      0.123 
 190   15   12  1    -0.2291    -0.2215    -0.2280  +6.4259e-03      0.121 
 158   10   21  4    +0.1280    +0.1345    +0.1289  +5.5523e-03      0.121 
 164   24   25  4    +0.0245    +0.0196    +0.0242  -4.6136e-03      0.117 
 236   19   18  4    -0.0192    -0.0248    -0.0203  -4.4444e-03      0.117 
 114   19   20  1    -0.0813    -0.0836    -0.0787  -4.8356e-03      0.117 
  44    0   14  2    -0.0790    -0.0754    -0.0795  +4.1439e-03      0.115 
 251   30   27  4    -0.0170    -0.0209    -0.0162  -4.6358e-03      0.115 
 233   15   14  4    -0.0136    -0.0104    -0.0150  +4.5768e-03      0.114 
  58    0   28  2    -0.0000    +0.0028    +0.0056  -2.8615e-03      0.113 
 193   17   16  1    -0.0516    -0.0573    -0.0526  -4.6251e-03      0.113 
 118   10   22  1    +0.0933    +0.0881    +0.0933  -5.2385e-03      0.111 
 106   12   13  1    +0.0000    -0.0045    -0.0007  -3.8113e-03      0.110 
  99    6    7  1    +0.4011    +0.4069    +0.4007  +6.2600e-03      0.109 
  21    0   21  6    +0.9926    +1.0002    +0.9927  +7.4549e-03      0.108 
  70    0   10  5    -0.0500    -0.0555    -0.0528  -2.7609e-03      0.106 
 127   27   29  1    +0.0791    +0.0822    +0.0776  +4.5698e-03      0.106 
 115   10   20  1    +0.1108    +0.1150    +0.1104  +4.6205e-03      0.105 
 139    5    7  4    +0.1138    +0.1185    +0.1138  +4.7279e-03      0.105 
 171    8   28  4    -0.0049    +0.0004    -0.0039  +4.3209e-03      0.104 
 154   18   19  4    +0.0195    +0.0245    +0.0206  +3.9461e-03      0.104 
 243   23   15  4    -0.0507    -0.0456    -0.0498  +4.2693e-03      0.103 
  93    2    4  1    +0.8236    +0.8143    +0.8226  -8.3326e-03      0.101 
 230   14   12  4    -0.0337    -0.0283    -0.0324  +4.1472e-03      0.100 
 182    8    6  1    -0.3758    -0.3681    -0.3738  +5.6722e-03      0.100 
  69    0    9  5    +0.0000    +0.0040    +0.0065  -2.5019e-03      0.099 
 198   17   10  1    -0.0624    -0.0687    -0.0649  -3.8549e-03      0.098 
 165   25   26  4    +0.0302    +0.0252    +0.0288  -3.6689e-03      0.098 
 168   27   29  4    +0.0221    +0.0256    +0.0217  +3.8371e-03      0.097 
 215    3    1  4    -0.1784    -0.1815    -0.1766  -4.9829e-03      0.097 
  23    0   23  6    +0.9905    +0.9843    +0.9909  -6.5876e-03      0.096 
 225   10    6  4    +0.0018    +0.0054    +0.0015  +3.8868e-03      0.095 
  71    0   11  5    +0.2400    +0.2320    +0.2366  -4.6217e-03      0.094 
 183    9    6  1    -0.3877    -0.3943    -0.3886  -5.7088e-03      0.093 
 195   19   18  1    -0.0397    -0.0428    -0.0392  -3.6367e-03      0.093 
 229   13   12  4    +0.2400    +0.2427    +0.2382  +4.5222e-03      0.093 
 196   20   19  1    +0.0816    +0.0751    +0.0790  -3.8161e-03      0.092 
  51    0   21  2    -0.2220    -0.2231    -0.2190  -4.1081e-03      0.090 
 138    4    6  4    +0.0052    -0.0000    +0.0032  -3.2273e-03      0.090 
 217    4    3  4    -0.1600    -0.1537    -0.1579  +4.1922e-03      0.089 
  74    0   14  5    -0.0200    -0.0145    -0.0173  +2.8017e-03      0.087 
  31    0    1  2    +0.0830    +0.0777    +0.0801  -2.4623e-03      0.083 
  49    0   19  2    -0.1210    -0.1146    -0.1179  +3.2877e-03      0.083 
 169   27   30  4    +0.0224    +0.0248    +0.0215  +3.3491e-03      0.082 
 245   24   23  4    -0.0303    -0.0251    -0.0284  +3.2950e-03      0.081 
  79    0   19  5    -0.0430    -0.0386    -0.0414  +2.8070e-03      0.081 
 228   12    4  4    -0.0763    -0.0806    -0.0772  -3.4025e-03      0.080 
  90    0   30  5    -0.0240    -0.0198    -0.0224  +2.6487e-03      0.078 
 227   10    9  4    -0.1154    -0.1147    -0.1181  +3.4320e-03      0.078 
 133    1    3  4    +0.1911    +0.1849    +0.1889  -3.9731e-03      0.076 
 237   20   19  4    +0.0243    +0.0244    +0.0215  +2.8651e-03      0.076 
  41    0   11  2    +0.0000    -0.0038    -0.0012  -2.6421e-03      0.076 
 209   29   27  1    -0.0775    -0.0728    -0.0761  +3.2782e-03      0.075 
 208   27   28  1    -0.2386    -0.2352    -0.2393  +4.0167e-03      0.075 
  39    0    9  2    -0.0000    -0.0025    -0.0007  -1.7598e-03      0.075 
 141    6    8  4    -0.0264    -0.0270    -0.0298  +2.8225e-03      0.075 
 109   12   16  1    +0.0971    +0.0952    +0.0985  -3.2790e-03      0.074 
 143    6   10  4    +0.0247    +0.0281    +0.0250  +3.1231e-03      0.073 
  83    0   23  5    -0.0200    -0.0233    -0.0210  -2.3200e-03      0.073 
 238   20   10  4    -0.0333    -0.0312    -0.0340  +2.8243e-03      0.072 
   3    0    3  6    +1.0052    +1.0004    +1.0054  -4.9720e-03      0.071 
 194   18   15  1    -0.0808    -0.0846    -0.0816  -3.0011e-03      0.070 
 220    6    4  4    +0.0070    +0.0063    +0.0088  -2.5095e-03      0.069 
  55    0   25  2    +0.0000    +0.0040    +0.0021  +1.8847e-03      0.069 
 235   18   15  4    -0.0305    -0.0261    -0.0288  +2.7388e-03      0.069 
 155   19   20  4    -0.0238    -0.0185    -0.0211  +2.5814e-03      0.068 
 116   10   17  1    +0.0625    +0.0624    +0.0650  -2.6739e-03      0.068 
  61    0    1  5    +0.6151    +0.6134    +0.6091  +4.2956e-03      0.068 
 192   15   14  1    -0.0222    -0.0246    -0.0219  -2.7213e-03      0.068 
 242   22   21  4    +0.0180    +0.0192    +0.0216  -2.4820e-03      0.067 
  87    0   27  5    +0.0000    -0.0052    -0.0035  -1.7479e-03      0.067 
  59    0   29  2    -0.0300    -0.0318    -0.0297  -2.1648e-03      0.066 
 142    6    9  4    -0.0647    -0.0680    -0.0652  -2.7726e-03      0.066 
 211   30   29  1    -0.0469    -0.0432    -0.0459  +2.7255e-03      0.065 
  86    0   26  5    -0.0290    -0.0299    -0.0275  -2.4504e-03      0.065 
 144    9   11  4    -0.2295    -0.2232    -0.2264  +3.2287e-03      0.065 
 120   15   23  1    +0.0657    +0.0680    +0.0653  +2.7059e-03      0.065 
 131    6   28  1    +0.2449    +0.2373    +0.2407  -3.3879e-03      0.064 
  28    0   28  6    +0.9772    +0.9820    +0.9776  +4.4261e-03      0.064 
 163   23   24  4    +0.0307    +0.0314    +0.0288  +2.5607e-03      0.063 
  66    0    6  5    +0.0000    -0.0016    -0.0003  -1.3760e-03      0.063 
  91    1    2  1    -0.4975    -0.4945    -0.4985  +4.0024e-03      0.062 
 145    9   10  4    +0.1331    +0.1386    +0.1358  +2.8013e-03      0.062 
 156   10   20  4    +0.0360    +0.0392    +0.0368  +2.4256e-03      0.062 
  25    0   25  6    +0.9752    +0.9715    +0.9757  -4.2273e-03      0.062 
 130    8   28  1    -0.0052    -0.0085    -0.0060  -2.5044e-03      0.061 
  88    0   28  5    -0.0000    -0.0037    -0.0019  -1.7552e-03      0.061 
  68    0    8  5    +0.0190    +0.0213    +0.0233  -2.0534e-03      0.061 
  76    0   16  5    -0.0230    -0.0245    -0.0226  -1.9036e-03      0.060 
   1    0    1  6    +1.0600    +1.0555    +1.0598  -4.2597e-03      0.059 
 150   12   16  4    +0.0669    +0.0635    +0.0660  -2.5180e-03      0.059 
 197   20   10  1    -0.1096    -0.1066    -0.1092  +2.5844e-03      0.058 
 119   21   22  1    -0.0286    -0.0241    -0.0263  +2.1720e-03      0.058 
 223    8    6  4    +0.0239    +0.0294    +0.0272  +2.1457e-03      0.057 
  92    1    3  1    +0.5805    +0.5745    +0.5786  -4.0946e-03      0.057 
 103    9   11  1    +0.0000    -0.0008    +0.0012  -1.9779e-03      0.057 
 226   11    9  4    +0.2400    +0.2394    +0.2366  +2.7883e-03      0.057 
   6    0    6  6    +0.9836    +0.9878    +0.9839  +3.8943e-03      0.056 
 181    7    6  1    -0.3967    -0.3930    -0.3962  +3.2384e-03      0.056 
  43    0   13  2    -0.0000    -0.0012    +0.0007  -1.9087e-03      0.055 
  97    4    6  1    +0.7067    +0.7069    +0.7028  +4.0330e-03      0.055 
  89    0   29  5    -0.0110    -0.0135    -0.0117  -1.7640e-03      0.054 
 252   30   29  4    -0.0070    -0.0041    -0.0062  +2.1145e-03      0.054 
  50    0   20  2    -0.0280    -0.0285    -0.0302  +1.7083e-03      0.054 
  34    0    4  2    -0.0370    -0.0421    -0.0433  +1.1188e-03      0.054 
 140    6    7  4    +0.0053    +0.0068    +0.0049  +1.9014e-03      0.054 
 121   22   24  1    +0.0639    +0.0682    +0.0660  +2.2226e-03      0.054 
 241   22   10  4    -0.0571    -0.0594    -0.0570  -2.3897e-03      0.053 
  94    3    4  1    +0.5351    +0.5331    +0.5366  -3.5398e-03      0.053 
 157   10   17  4    +0.0339    +0.0348    +0.0328  +1.9779e-03      0.053 
 151   14   15  4    +0.0137    +0.0172    +0.0151  +2.1045e-03      0.053 
 248   27   25  4    +0.0070    +0.0029    +0.0048  -1.9331e-03      0.052 
  13    0   13  6    +1.0675    +1.0710    +1.0674  +3.6693e-03      0.051 
 250   29   27  4    -0.0192    -0.0171    -0.0190  +1.8917e-03      0.048 
  53    0   23  2    -0.0410    -0.0356    -0.0372  +1.5733e-03      0.047 
 135    3    4  4    +0.1634    +0.1636    +0.1613  +2.2338e-03      0.047 
  85    0   25  5    +0.0000    +0.0026    +0.0013  +1.3117e-03      0.047 
 188   13   12  1    -0.0000    -0.0008    +0.0007  -1.5487e-03      0.045 
  63    0    3  5    -0.0150    -0.0139    -0.0152  +1.3009e-03      0.043 
 210   30   27  1    -0.0881    -0.0844    -0.0864  +1.9451e-03      0.043 
  11    0   11  6    +1.0689    +1.0718    +1.0688  +3.0204e-03      0.042 
  57    0   27  2    +0.0000    -0.0016    -0.0006  -1.0103e-03      0.042 
 207   27   25  1    +0.0685    +0.0736    +0.0719  +1.6750e-03      0.041 
 128   27   30  1    +0.0910    +0.0910    +0.0891  +1.8081e-03      0.040 
 122   23   24  1    +0.0240    +0.0258    +0.0274  -1.5832e-03      0.040 
 206   26   25  1    -0.0440    -0.0481    -0.0496  +1.5075e-03      0.039 
 134    2    4  4    +0.0811    +0.0816    +0.0798  +1.7972e-03      0.039 
  80    0   20  5    -0.0090    -0.0112    -0.0125  +1.2194e-03      0.039 
 202   23   15  1    -0.0650    -0.0630    -0.0646  +1.5565e-03      0.037 
 185   11    9  1    -0.0000    -0.0025    -0.0012  -1.2921e-03      0.037 
 247   26   25  4    -0.0290    -0.0289    -0.0275  -1.3904e-03      0.037 
 108   12   15  1    +0.2332    +0.2339    +0.2320  +1.8497e-03      0.035 
 187   12    4  1    -0.5750    -0.5756    -0.5731  -2.4413e-03      0.035 
  18    0   18  6    +0.9918    +0.9900    +0.9923  -2.3225e-03      0.034 
 126   28   27  1    +0.2386    +0.2410    +0.2393  +1.7833e-03      0.033 
  81    0   21  5    -0.1420    -0.1479    -0.1465  -1.3667e-03      0.033 
  65    0    5  5    +0.1590    +0.1615    +0.1602  +1.3370e-03      0.033 
 113   18   19  1    +0.0398    +0.0380    +0.0393  -1.2811e-03      0.033 
  46    0   16  2    -0.0440    -0.0454    -0.0444  -1.0793e-03      0.033 
 153   15   18  4    +0.0322    +0.0318    +0.0305  +1.2880e-03      0.032 
 189   14   12  1    -0.1014    -0.1031    -0.1016  -1.4540e-03      0.032 
 110   14   15  1    +0.0224    +0.0208    +0.0221  -1.2622e-03      0.031 
 161   15   23  4    +0.0521    +0.0499    +0.0512  -1.2780e-03      0.031 
  82    0   22  5    -0.0000    +0.0018    +0.0009  +8.9326e-04      0.031 
 214    2    1  4    -0.4592    -0.4538    -0.4557  +1.8770e-03      0.030 
  15    0   15  6    +1.0074    +1.0097    +1.0076  +2.0649e-03      0.030 
 219    6    2  4    +0.0229    +0.0229    +0.0241  -1.2151e-03      0.030 
 204   24   23  1    -0.0238    -0.0283    -0.0272  -1.1391e-03      0.029 
 222    7    6  4    -0.0079    -0.0066    -0.0076  +1.0171e-03      0.029 
 232   16   12  4    -0.0643    -0.0646    -0.0634  -1.2022e-03      0.028 
  54    0   24  2    -0.1100    -0.1142    -0.1152  +1.0154e-03      0.028 
 200   22   10  1    -0.0925    -0.0937    -0.0925  -1.2605e-03      0.027 
 199   21   10  1    -0.1934    -0.1914    -0.1927  +1.2999e-03      0.026 
   5    0    5  6    +0.9816    +0.9804    +0.9821  -1.7045e-03      0.025 
  60    0   30  2    -0.1350    -0.1331    -0.1323  -8.6938e-04      0.021 
  84    0   24  5    -0.0850    -0.0799    -0.0806  +7.1753e-04      0.021 
 146    4   12  4    +0.1565    +0.1560    +0.1569  -9.5321e-04      0.020 
  10    0   10  6    +1.0088    +1.0076    +1.0090  -1.3268e-03      0.019 
  42    0   12  2    -0.1420    -0.1398    -0.1404  +5.8331e-04      0.019 
 205   25   24  1    +0.0232    +0.0236    +0.0229  +7.0581e-04      0.018 
  75    0   15  5    -0.0320    -0.0364    -0.0359  -4.9466e-04      0.018 
  77    0   17  5    -0.0740    -0.0717    -0.0723  +6.5070e-04      0.018 
  48    0   18  2    -0.0410    -0.0429    -0.0423  -5.8215e-04      0.017 
 101    6    9  1    +0.3877    +0.3896    +0.3886  +1.0488e-03      0.017 
   4    0    4  6    +0.9920    +0.9934    +0.9923  +1.1813e-03      0.017 
 216    4    2  4    -0.0098    -0.0094    -0.0088  -6.7416e-04      0.017 
 137    2    6  4    +0.0968    +0.0941    +0.0949  -7.7936e-04      0.017 
 244   24   22  4    -0.0381    -0.0359    -0.0352  -6.6285e-04      0.017 
 201   22   21  1    +0.0286    +0.0257    +0.0263  -6.1561e-04      0.016 
 136    2    5  4    +0.1575    +0.1556    +0.1548  +7.9909e-04      0.016 
 212   28    8  1    +0.0052    +0.0066    +0.0060  +6.3379e-04      0.015 
  36    0    6  2    -0.0000    -0.0000    -0.0003  +2.3885e-04      0.015 
  64    0    4  5    -0.0080    -0.0069    -0.0065  -3.7251e-04      0.014 
 152   16   17  4    +0.0413    +0.0402    +0.0408  -5.7139e-04      0.014 
  47    0   17  2    -0.1140    -0.1170    -0.1175  +5.0993e-04      0.013 
  45    0   15  2    -0.1040    -0.1018    -0.1022  +4.0486e-04      0.013 
 240   21   10  4    -0.1240    -0.1243    -0.1249  +5.7905e-04      0.013 
 224    9    6  4    +0.0964    +0.0977    +0.0971  +5.2808e-04      0.012 
 249   27   28  4    -0.0515    -0.0510    -0.0514  +4.7900e-04      0.012 
  67    0    7  5    -0.1380    -0.1381    -0.1377  -4.2379e-04      0.010 
  52    0   22  2    +0.0000    -0.0005    -0.0002  -2.8349e-04      0.010 
 231   15   12  4    -0.1027    -0.1022    -0.1026  +4.3853e-04      0.010 
 162   22   24  4    +0.0391    +0.0366    +0.0363  +3.8496e-04      0.010 
 239   17   10  4    -0.0335    -0.0327    -0.0324  -3.4827e-04      0.009 
  98    5    7  1    -0.1054    -0.1035    -0.1033  -2.7552e-04      0.007 
  56    0   26  2    -0.0440    -0.0498    -0.0496  -2.5255e-04      0.007 
 191   16   12  1    -0.0959    -0.0970    -0.0972  +2.3241e-04      0.005 
 203   24   22  1    -0.0632    -0.0655    -0.0653  -2.1299e-04      0.005 
  40    0   10  2    -0.1460    -0.1435    -0.1437  +1.5291e-04      0.005 
 253   28    8  4    -0.0360    -0.0372    -0.0370  -1.9735e-04      0.005 
 175    4    2  1    -0.7877    -0.7864    -0.7868  +3.5301e-04      0.004 
 124   25   26  1    +0.0448    +0.0506    +0.0505  +1.3925e-04      0.004 
  17    0   17  6    +1.0039    +1.0039    +1.0042  -2.5008e-04      0.004 
 160   21   22  4    -0.0180    -0.0217    -0.0216  -9.5712e-05      0.003 
 104    9   10  1    +0.3877    +0.3869    +0.3867  +1.4689e-04      0.002 
 213   28    6  1    -0.2438    -0.2395    -0.2396  +8.1426e-05      0.002 
 117   10   21  1    +0.1953    +0.1946    +0.1946  +6.7584e-05      0.001 
 159   10   22  4    +0.0589    +0.0588    +0.0588  +5.8006e-05      0.001 
 125   25   27  1    -0.0680    -0.0713    -0.0713  +3.9627e-05      0.001 
   7    0    7  6    +0.9721    +0.9725    +0.9725  -5.0040e-05      0.001 
----------------------------------------------------------------------------------
Não foram identificados erros grosseiros.
Não foram identificadas medidas críticas.
Possíveis conjuntos críticos:
Conjunto 1: 40 203
Conjunto 2: 244 137
Conjunto 3: 137 216
Conjunto 4: 4 101
Conjunto 5: 77 75
Conjunto 6: 42 10
Conjunto 7: 54 232
Conjunto 8: 222 204
Conjunto 9: 219 15
Conjunto 10: 15 214
Conjunto 11: 82 161
Conjunto 12: 110 189
Conjunto 13: 46 113 65
Conjunto 14: 113 65
Conjunto 15: 81 126
Conjunto 16: 126 18
Conjunto 17: 187 108
Conjunto 18: 247 185 202
Conjunto 19: 185 202
Conjunto 20: 80 134
Conjunto 21: 134 206
Conjunto 22: 122 128
Conjunto 23: 57 11
Conjunto 24: 210 63
Conjunto 25: 85 135
Conjunto 26: 135 53
Conjunto 27: 248 151 157 94
Conjunto 28: 151 157 94
Conjunto 29: 157 94
Conjunto 30: 241 121 140 34 50
Conjunto 31: 121 140 34 50
Conjunto 32: 140 34 50 252
Conjunto 33: 34 50 252 89
Conjunto 34: 50 252 89 97
Conjunto 35: 252 89 97
Conjunto 36: 89 97
Conjunto 37: 181 6 226 103 92
Conjunto 38: 6 226 103 92
Conjunto 39: 226 103 92 223
Conjunto 40: 103 92 223
Conjunto 41: 92 223
Conjunto 42: 223 119
Conjunto 43: 150 1
Conjunto 44: 1 76
Conjunto 45: 68 88 130
Conjunto 46: 88 130
Conjunto 47: 25 156 145 91
Conjunto 48: 156 145 91
Conjunto 49: 145 91
Conjunto 50: 91 66 163
Conjunto 51: 66 163
Conjunto 52: 28 131 120 144
Conjunto 53: 131 120 144
Conjunto 54: 120 144 86
Conjunto 55: 144 86
Conjunto 56: 86 211 142
Conjunto 57: 211 142
Conjunto 58: 142 59
Conjunto 59: 59 87 242
Conjunto 60: 87 242
Conjunto 61: 192 61
Conjunto 62: 61 116 155
Conjunto 63: 116 155 235
Conjunto 64: 155 235
Conjunto 65: 235 55 220
Conjunto 66: 55 220 194
Conjunto 67: 220 194
Conjunto 68: 238 83
Conjunto 69: 83 143
Conjunto 70: 143 109
Conjunto 71: 141 39 208
Conjunto 72: 39 208 209 41 237
Conjunto 73: 208 209 41 237
Conjunto 74: 209 41 237
Conjunto 75: 41 237 133
Conjunto 76: 237 133
Conjunto 77: 227 90
Conjunto 78: 79 245
Conjunto 79: 169 49
Conjunto 80: 49 31
Conjunto 81: 138 51
Conjunto 82: 196 229
Conjunto 83: 229 195 183
Conjunto 84: 195 183
Conjunto 85: 183 71
Conjunto 86: 225 23
Conjunto 87: 215 168
Conjunto 88: 168 165 198
Conjunto 89: 165 198 69
Conjunto 90: 198 69
Conjunto 91: 182 230
Conjunto 92: 230 93
Conjunto 93: 243 154 171
Conjunto 94: 154 171 139
Conjunto 95: 171 139 115
Conjunto 96: 139 115 127
Conjunto 97: 115 127
Conjunto 98: 127 70
Conjunto 99: 99 106
Conjunto 100: 193 58
Conjunto 101: 233 251 44
Conjunto 102: 251 44
Conjunto 103: 114 236 164
Conjunto 104: 236 164
Conjunto 105: 158 190
Conjunto 106: 179 246 22 180
Conjunto 107: 246 22 180
Conjunto 108: 22 180
Conjunto 109: 72 8 172
Conjunto 110: 8 172
Conjunto 111: 148 129 78 33 111
Conjunto 112: 129 78 33 111 112
Conjunto 113: 78 33 111 112
Conjunto 114: 33 111 112
Conjunto 115: 111 112
Conjunto 116: 123 234 149
Conjunto 117: 234 149
Conjunto 118: 12 167 27
Conjunto 119: 167 27
Conjunto 120: 73 16 26
Conjunto 121: 16 26
Conjunto 122: 170 147
Conjunto 123: 19 102
Conjunto 124: 102 218 166
Conjunto 125: 218 166
Conjunto 126: 132 30 62
Conjunto 127: 30 62
Conjunto 128: 100 176
Conjunto 129: 176 173 2
Conjunto 130: 173 2
Conjunto 131: 9 29
Conjunto 132: 32 105 14
Conjunto 133: 105 14
